  11301 'GENROU' 1     5.6150      0.22000E-01  0.44700      0.47000E-01
          6.5900       0.0000       1.9010       1.8120      0.27100    
         0.42700      0.18900      0.16000      0.11000      0.45000    /
  11301 'PSS2A '  1          1            0            3            0
               5            1       2.0000       2.0000       0.0000    
          2.0000       0.0000       2.0000      0.15200       1.0000    
         0.50000      0.10000       15.000      0.15000      0.20000E-01
         0.15000      0.30000E-01  0.10000     -0.10000     /
  11301 'ESST4B' 1     0.0000       3.1300       3.1300       1.0000    
        -0.87000      0.10000E-01   1.0000       0.0000       1.0000    
        -0.87000       0.0000       6.3800       0.0000       7.9800    
         0.16000       0.0000       0.0000    /
  11301 'IEEEG1' 1          0           0        25.000      0.50000E-01
          0.0000      0.40000      0.50000E-01 -0.10000      0.56842    
         0.21053      0.20000       1.0000       0.0000       0.0000    
          0.0000       0.0000       0.0000       0.0000       0.0000    
          0.0000       0.0000       0.0000    /
  11301 'GENROU' 2     5.6150      0.22000E-01  0.44700      0.47000E-01
          6.5900       0.0000       1.9010       1.8120      0.27100    
         0.42700      0.18900      0.16000      0.11000      0.45000    /
  11301 'PSS2A '  2          1            0            3            0
               5            1       2.0000       2.0000       0.0000    
          2.0000       0.0000       2.0000      0.15200       1.0000    
         0.50000      0.10000       15.000      0.15000      0.20000E-01
         0.15000      0.30000E-01  0.10000     -0.10000     /
  11301 'ESST4B' 2     0.0000       3.1300       3.1300       1.0000    
        -0.87000      0.10000E-01   1.0000       0.0000       1.0000    
        -0.87000       0.0000       6.3800       0.0000       7.9800    
         0.16000       0.0000       0.0000    /
  11301 'IEEEG1' 2          0           0        25.000      0.50000E-01
          0.0000      0.40000      0.50000E-01 -0.10000      0.56842    
         0.21053      0.20000       1.0000       0.0000       0.0000    
          0.0000       0.0000       0.0000       0.0000       0.0000    
          0.0000       0.0000       0.0000    /
  11302 'GENROU' 3     5.6150      0.22000E-01  0.44700      0.47000E-01
          6.5900       0.0000       1.9010       1.8120      0.27100    
         0.42700      0.18900      0.16000      0.11000      0.45000    /
  11302 'PSS2A '  3          1            0            3            0
               5            1       2.0000       2.0000       0.0000    
          2.0000       0.0000       2.0000      0.15200       1.0000    
         0.50000      0.10000       15.000      0.15000      0.20000E-01
         0.15000      0.30000E-01  0.10000     -0.10000     /
  11302 'ESST4B' 3     0.0000       3.1300       3.1300       1.0000    
        -0.87000      0.10000E-01   1.0000       0.0000       1.0000    
        -0.87000       0.0000       6.3800       0.0000       7.9800    
         0.16000       0.0000       0.0000    /
  11302 'IEEEG1' 3          0           0        25.000      0.50000E-01
          0.0000      0.40000      0.50000E-01 -0.10000      0.56842    
         0.21053      0.20000       1.0000       0.0000       0.0000    
          0.0000       0.0000       0.0000       0.0000       0.0000    
          0.0000       0.0000       0.0000    /
  11302 'GENROU' 4     5.6150      0.22000E-01  0.44700      0.47000E-01
          6.5900       0.0000       1.9010       1.8120      0.27100    
         0.42700      0.18900      0.16000      0.11000      0.45000    /
  11302 'PSS2A '  4          1            0            3            0
               5            1       2.0000       2.0000       0.0000    
          2.0000       0.0000       2.0000      0.15200       1.0000    
         0.50000      0.10000       15.000      0.15000      0.20000E-01
         0.15000      0.30000E-01  0.10000     -0.10000     /
  11302 'ESST4B' 4     0.0000       3.1300       3.1300       1.0000    
        -0.87000      0.10000E-01   1.0000       0.0000       1.0000    
        -0.87000       0.0000       6.3800       0.0000       7.9800    
         0.16000       0.0000       0.0000    /
  11302 'IEEEG1' 4          0           0        25.000      0.50000E-01
          0.0000      0.40000      0.50000E-01 -0.10000      0.56842    
         0.21053      0.20000       1.0000       0.0000       0.0000    
          0.0000       0.0000       0.0000       0.0000       0.0000    
          0.0000       0.0000       0.0000    /
  11303 'GENROU' 5     5.6150      0.22000E-01  0.44700      0.47000E-01
          6.5900       0.0000       1.9010       1.8120      0.27100    
         0.42700      0.18900      0.16000      0.11000      0.45000    /
  11303 'PSS2A '  5          1            0            3            0
               5            1       2.0000       2.0000       0.0000    
          2.0000       0.0000       2.0000      0.15200       1.0000    
         0.50000      0.10000       15.000      0.15000      0.20000E-01
         0.15000      0.30000E-01  0.10000     -0.10000     /
  11303 'ESST4B' 5     0.0000       3.1300       3.1300       1.0000    
        -0.87000      0.10000E-01   1.0000       0.0000       1.0000    
        -0.87000       0.0000       6.3800       0.0000       7.9800    
         0.16000       0.0000       0.0000    /
  11303 'IEEEG1' 5          0           0        25.000      0.50000E-01
          0.0000      0.40000      0.50000E-01 -0.10000      0.56842    
         0.21053      0.20000       1.0000       0.0000       0.0000    
          0.0000       0.0000       0.0000       0.0000       0.0000    
          0.0000       0.0000       0.0000    /
  11303 'GENROU' 6     5.6150      0.22000E-01  0.44700      0.47000E-01
          6.5900       0.0000       1.9010       1.8120      0.27100    
         0.42700      0.18900      0.16000      0.11000      0.45000    /
  11303 'PSS2A '  6          1            0            3            0
               5            1       2.0000       2.0000       0.0000    
          2.0000       0.0000       2.0000      0.15200       1.0000    
         0.50000      0.10000       15.000      0.15000      0.20000E-01
         0.15000      0.30000E-01  0.10000     -0.10000     /
  11303 'ESST4B' 6     0.0000       3.1300       3.1300       1.0000    
        -0.87000      0.10000E-01   1.0000       0.0000       1.0000    
        -0.87000       0.0000       6.3800       0.0000       7.9800    
         0.16000       0.0000       0.0000    /
  11303 'IEEEG1' 6          0           0        25.000      0.50000E-01
          0.0000      0.40000      0.50000E-01 -0.10000      0.56842    
         0.21053      0.20000       1.0000       0.0000       0.0000    
          0.0000       0.0000       0.0000       0.0000       0.0000    
          0.0000       0.0000       0.0000    /
  11304 'GENROU' 7     5.6150      0.22000E-01  0.44700      0.47000E-01
          6.5900       0.0000       1.9010       1.8120      0.27100    
         0.42700      0.18900      0.16000      0.11000      0.45000    /
  11304 'PSS2A '  7          1            0            3            0
               5            1       2.0000       2.0000       0.0000    
          2.0000       0.0000       2.0000      0.15200       1.0000    
         0.50000      0.10000       15.000      0.15000      0.20000E-01
         0.15000      0.30000E-01  0.10000     -0.10000     /
  11304 'ESST4B' 7     0.0000       3.1300       3.1300       1.0000    
        -0.87000      0.10000E-01   1.0000       0.0000       1.0000    
        -0.87000       0.0000       6.3800       0.0000       7.9800    
         0.16000       0.0000       0.0000    /
  11304 'IEEEG1' 7          0           0        25.000      0.50000E-01
          0.0000      0.40000      0.50000E-01 -0.10000      0.56842    
         0.21053      0.20000       1.0000       0.0000       0.0000    
          0.0000       0.0000       0.0000       0.0000       0.0000    
          0.0000       0.0000       0.0000    /
  11304 'GENROU' 8     5.6150      0.22000E-01  0.44700      0.47000E-01
          6.5900       0.0000       1.9010       1.8120      0.27100    
         0.42700      0.18900      0.16000      0.11000      0.45000    /
  11304 'PSS2A '  8          1            0            3            0
               5            1       2.0000       2.0000       0.0000    
          2.0000       0.0000       2.0000      0.15200       1.0000    
         0.50000      0.10000       15.000      0.15000      0.20000E-01
         0.15000      0.30000E-01  0.10000     -0.10000     /
  11304 'ESST4B' 8     0.0000       3.1300       3.1300       1.0000    
        -0.87000      0.10000E-01   1.0000       0.0000       1.0000    
        -0.87000       0.0000       6.3800       0.0000       7.9800    
         0.16000       0.0000       0.0000    /
  11304 'IEEEG1' 8          0           0        25.000      0.50000E-01
          0.0000      0.40000      0.50000E-01 -0.10000      0.56842    
         0.21053      0.20000       1.0000       0.0000       0.0000    
          0.0000       0.0000       0.0000       0.0000       0.0000    
          0.0000       0.0000       0.0000    /
  11305 'GENROU' 10    5.6150      0.22000E-01  0.44700      0.47000E-01
          6.5900       0.0000       1.9010       1.8120      0.27100    
         0.42700      0.18900      0.16000      0.11000      0.45000    /
  11305 'PSS2A '  10         1            0            3            0
               5            1       2.0000       2.0000       0.0000    
          2.0000       0.0000       2.0000      0.15200       1.0000    
         0.50000      0.10000       15.000      0.15000      0.20000E-01
         0.15000      0.30000E-01  0.10000     -0.10000     /
  11305 'ESST4B' 10    0.0000       3.1300       3.1300       1.0000    
        -0.87000      0.10000E-01   1.0000       0.0000       1.0000    
        -0.87000       0.0000       6.3800       0.0000       7.9800    
         0.16000       0.0000       0.0000    /
  11305 'IEEEG1' 10         0           0        25.000      0.50000E-01
          0.0000      0.40000      0.50000E-01 -0.10000      0.56842    
         0.21053      0.20000       1.0000       0.0000       0.0000    
          0.0000       0.0000       0.0000       0.0000       0.0000    
          0.0000       0.0000       0.0000    /
  11305 'GENROU' 9     5.6150      0.22000E-01  0.44700      0.47000E-01
          6.5900       0.0000       1.9010       1.8120      0.27100    
         0.42700      0.18900      0.16000      0.11000      0.45000    /
  11305 'PSS2A '  9          1            0            3            0
               5            1       2.0000       2.0000       0.0000    
          2.0000       0.0000       2.0000      0.15200       1.0000    
         0.50000      0.10000       15.000      0.15000      0.20000E-01
         0.15000      0.30000E-01  0.10000     -0.10000     /
  11305 'ESST4B' 9     0.0000       3.1300       3.1300       1.0000    
        -0.87000      0.10000E-01   1.0000       0.0000       1.0000    
        -0.87000       0.0000       6.3800       0.0000       7.9800    
         0.16000       0.0000       0.0000    /
  11305 'IEEEG1' 9          0           0        25.000      0.50000E-01
          0.0000      0.40000      0.50000E-01 -0.10000      0.56842    
         0.21053      0.20000       1.0000       0.0000       0.0000    
          0.0000       0.0000       0.0000       0.0000       0.0000    
          0.0000       0.0000       0.0000    /
  11306 'GENROU' 11    5.6150      0.22000E-01  0.44700      0.47000E-01
          6.5900       0.0000       1.9010       1.8120      0.27100    
         0.42700      0.18900      0.16000      0.11000      0.45000    /
  11306 'PSS2A '  11         1            0            3            0
               5            1       2.0000       2.0000       0.0000    
          2.0000       0.0000       2.0000      0.15200       1.0000    
         0.50000      0.10000       15.000      0.15000      0.20000E-01
         0.15000      0.30000E-01  0.10000     -0.10000     /
  11306 'ESST4B' 11    0.0000       3.1300       3.1300       1.0000    
        -0.87000      0.10000E-01   1.0000       0.0000       1.0000    
        -0.87000       0.0000       6.3800       0.0000       7.9800    
         0.16000       0.0000       0.0000    /
  11306 'IEEEG1' 11         0           0        25.000      0.50000E-01
          0.0000      0.40000      0.50000E-01 -0.10000      0.56842    
         0.21053      0.20000       1.0000       0.0000       0.0000    
          0.0000       0.0000       0.0000       0.0000       0.0000    
          0.0000       0.0000       0.0000    /
  11306 'GENROU' 12    5.6150      0.22000E-01  0.44700      0.47000E-01
          6.5900       0.0000       1.9010       1.8120      0.27100    
         0.42700      0.18900      0.16000      0.11000      0.45000    /
  11306 'PSS2A '  12         1            0            3            0
               5            1       2.0000       2.0000       0.0000    
          2.0000       0.0000       2.0000      0.15200       1.0000    
         0.50000      0.10000       15.000      0.15000      0.20000E-01
         0.15000      0.30000E-01  0.10000     -0.10000     /
  11306 'ESST4B' 12    0.0000       3.1300       3.1300       1.0000    
        -0.87000      0.10000E-01   1.0000       0.0000       1.0000    
        -0.87000       0.0000       6.3800       0.0000       7.9800    
         0.16000       0.0000       0.0000    /
  11306 'IEEEG1' 12         0           0        25.000      0.50000E-01
          0.0000      0.40000      0.50000E-01 -0.10000      0.56842    
         0.21053      0.20000       1.0000       0.0000       0.0000    
          0.0000       0.0000       0.0000       0.0000       0.0000    
          0.0000       0.0000       0.0000    /
  11307 'GENROU' 1     3.7970      0.33000E-01  0.37800      0.82000E-01
          3.0300       0.0000       1.4010       1.3460      0.22300    
         0.37000      0.15000      0.12200      0.10000      0.47000    /
  11307 'PSS2A '  1          1            0            3            0
               5            1       2.0000       2.0000       0.0000    
          2.0000       0.0000       2.0000      0.33000       1.0000    
         0.50000      0.10000       15.000      0.15000      0.25000E-01
         0.12000      0.30000E-01  0.10000     -0.10000     /
  11307 'ESST4B' 1     0.0000       4.9600       4.9600       1.0000    
        -0.87000      0.10000E-01   1.0000       0.0000       1.0000    
        -0.87000       0.0000       4.0300       0.0000       5.0400    
         0.90000E-01   0.0000       0.0000    /
  11308 'GENROU' 13    5.6150      0.22000E-01  0.44700      0.47000E-01
          6.5900       0.0000       1.9010       1.8120      0.27100    
         0.42700      0.18900      0.16000      0.11000      0.45000    /
  11308 'PSS2A '  13         1            0            3            0
               5            1       2.0000       2.0000       0.0000    
          2.0000       0.0000       2.0000      0.15200       1.0000    
         0.50000      0.10000       15.000      0.15000      0.20000E-01
         0.15000      0.30000E-01  0.10000     -0.10000     /
  11308 'ESST4B' 13    0.0000       3.1300       3.1300       1.0000    
        -0.87000      0.10000E-01   1.0000       0.0000       1.0000    
        -0.87000       0.0000       6.3800       0.0000       7.9800    
         0.16000       0.0000       0.0000    /
  11308 'IEEEG1' 13         0           0        25.000      0.50000E-01
          0.0000      0.40000      0.50000E-01 -0.10000      0.56842    
         0.21053      0.20000       1.0000       0.0000       0.0000    
          0.0000       0.0000       0.0000       0.0000       0.0000    
          0.0000       0.0000       0.0000    /
  11308 'GENROU' 14    5.6150      0.22000E-01  0.44700      0.47000E-01
          6.5900       0.0000       1.9010       1.8120      0.27100    
         0.42700      0.18900      0.16000      0.11000      0.45000    /
  11308 'PSS2A '  14         1            0            3            0
               5            1       2.0000       2.0000       0.0000    
          2.0000       0.0000       2.0000      0.15200       1.0000    
         0.50000      0.10000       15.000      0.15000      0.20000E-01
         0.15000      0.30000E-01  0.10000     -0.10000     /
  11308 'ESST4B' 14    0.0000       3.1300       3.1300       1.0000    
        -0.87000      0.10000E-01   1.0000       0.0000       1.0000    
        -0.87000       0.0000       6.3800       0.0000       7.9800    
         0.16000       0.0000       0.0000    /
  11308 'IEEEG1' 14         0           0        25.000      0.50000E-01
          0.0000      0.40000      0.50000E-01 -0.10000      0.56842    
         0.21053      0.20000       1.0000       0.0000       0.0000    
          0.0000       0.0000       0.0000       0.0000       0.0000    
          0.0000       0.0000       0.0000    /
  11309 'GENROU' 15    5.6150      0.22000E-01  0.44700      0.47000E-01
          6.5900       0.0000       1.9010       1.8120      0.27100    
         0.42700      0.18900      0.16000      0.11000      0.45000    /
  11309 'PSS2A '  15         1            0            3            0
               5            1       2.0000       2.0000       0.0000    
          2.0000       0.0000       2.0000      0.15200       1.0000    
         0.50000      0.10000       15.000      0.15000      0.20000E-01
         0.15000      0.30000E-01  0.10000     -0.10000     /
  11309 'ESST4B' 15    0.0000       3.1300       3.1300       1.0000    
        -0.87000      0.10000E-01   1.0000       0.0000       1.0000    
        -0.87000       0.0000       6.3800       0.0000       7.9800    
         0.16000       0.0000       0.0000    /
  11309 'IEEEG1' 15         0           0        25.000      0.50000E-01
          0.0000      0.40000      0.50000E-01 -0.10000      0.56842    
         0.21053      0.20000       1.0000       0.0000       0.0000    
          0.0000       0.0000       0.0000       0.0000       0.0000    
          0.0000       0.0000       0.0000    /
  11309 'GENROU' 16    5.6150      0.22000E-01  0.44700      0.47000E-01
          6.5900       0.0000       1.9010       1.8120      0.27100    
         0.42700      0.18900      0.16000      0.11000      0.45000    /
  11309 'PSS2A '  16         1            0            3            0
               5            1       2.0000       2.0000       0.0000    
          2.0000       0.0000       2.0000      0.15200       1.0000    
         0.50000      0.10000       15.000      0.15000      0.20000E-01
         0.15000      0.30000E-01  0.10000     -0.10000     /
  11309 'ESST4B' 16    0.0000       3.1300       3.1300       1.0000    
        -0.87000      0.10000E-01   1.0000       0.0000       1.0000    
        -0.87000       0.0000       6.3800       0.0000       7.9800    
         0.16000       0.0000       0.0000    /
  11309 'IEEEG1' 16         0           0        25.000      0.50000E-01
          0.0000      0.40000      0.50000E-01 -0.10000      0.56842    
         0.21053      0.20000       1.0000       0.0000       0.0000    
          0.0000       0.0000       0.0000       0.0000       0.0000    
          0.0000       0.0000       0.0000    /
  11315 'GENROU' 25    5.6150      0.22000E-01  0.44700      0.47000E-01
          6.5900       0.0000       1.9010       1.8120      0.27100    
         0.42700      0.17500      0.16000      0.11000      0.45000    /
  11315 'PSS2A '  25         1            0            3            0
               5            1       2.0000       2.0000       0.0000    
          2.0000       0.0000       2.0000      0.15200       1.0000    
         0.50000      0.10000       15.000      0.15000      0.20000E-01
         0.15000      0.30000E-01  0.10000     -0.10000     /
  11315 'ESST4B' 25    0.0000       3.1300       3.1300       1.0000    
        -0.87000      0.10000E-01   1.0000       0.0000       1.0000    
        -0.87000       0.0000       6.3800       0.0000       7.9800    
         0.16000       0.0000       0.0000    /
  11315 'IEEEG1' 25         0           0        25.000      0.50000E-01
          0.0000      0.40000      0.50000E-01 -0.10000      0.64519    
         0.19231      0.20000       1.0000       0.0000       0.0000    
          0.0000       0.0000       0.0000       0.0000       0.0000    
          0.0000       0.0000       0.0000    /
  11315 'GENROU' 26    5.6150      0.22000E-01  0.44700      0.47000E-01
          6.5900       0.0000       1.9010       1.8120      0.27100    
         0.42700      0.17500      0.16000      0.11000      0.45000    /
  11315 'PSS2A '  26         1            0            3            0
               5            1       2.0000       2.0000       0.0000    
          2.0000       0.0000       2.0000      0.15200       1.0000    
         0.50000      0.10000       15.000      0.15000      0.20000E-01
         0.15000      0.30000E-01  0.10000     -0.10000     /
  11315 'ESST4B' 26    0.0000       3.1300       3.1300       1.0000    
        -0.87000      0.10000E-01   1.0000       0.0000       1.0000    
        -0.87000       0.0000       6.3800       0.0000       7.9800    
         0.16000       0.0000       0.0000    /
  11315 'IEEEG1' 26         0           0        25.000      0.50000E-01
          0.0000      0.40000      0.50000E-01 -0.10000      0.64519    
         0.19231      0.20000       1.0000       0.0000       0.0000    
          0.0000       0.0000       0.0000       0.0000       0.0000    
          0.0000       0.0000       0.0000    /
  11315 'GENROU' 27    5.6150      0.22000E-01  0.44700      0.47000E-01
          6.5900       0.0000       1.9010       1.8120      0.27100    
         0.42700      0.17500      0.16000      0.11000      0.45000    /
  11315 'PSS2A '  27         1            0            3            0
               5            1       2.0000       2.0000       0.0000    
          2.0000       0.0000       2.0000      0.15200       1.0000    
         0.50000      0.10000       15.000      0.15000      0.20000E-01
         0.15000      0.30000E-01  0.10000     -0.10000     /
  11315 'ESST4B' 27    0.0000       3.1300       3.1300       1.0000    
        -0.87000      0.10000E-01   1.0000       0.0000       1.0000    
        -0.87000       0.0000       6.3800       0.0000       7.9800    
         0.16000       0.0000       0.0000    /
  11315 'IEEEG1' 27         0           0        25.000      0.50000E-01
          0.0000      0.40000      0.50000E-01 -0.10000      0.64519    
         0.19231      0.20000       1.0000       0.0000       0.0000    
          0.0000       0.0000       0.0000       0.0000       0.0000    
          0.0000       0.0000       0.0000    /
  11315 'GENROU' 28    5.6150      0.22000E-01  0.44700      0.47000E-01
          6.5900       0.0000       1.9010       1.8120      0.27100    
         0.42700      0.17500      0.16000      0.11000      0.45000    /
  11315 'PSS2A '  28         1            0            3            0
               5            1       2.0000       2.0000       0.0000    
          2.0000       0.0000       2.0000      0.15200       1.0000    
         0.50000      0.10000       15.000      0.15000      0.20000E-01
         0.15000      0.30000E-01  0.10000     -0.10000     /
  11315 'ESST4B' 28    0.0000       3.1300       3.1300       1.0000    
        -0.87000      0.10000E-01   1.0000       0.0000       1.0000    
        -0.87000       0.0000       6.3800       0.0000       7.9800    
         0.16000       0.0000       0.0000    /
  11315 'IEEEG1' 28         0           0        25.000      0.50000E-01
          0.0000      0.40000      0.50000E-01 -0.10000      0.64519    
         0.19231      0.20000       1.0000       0.0000       0.0000    
          0.0000       0.0000       0.0000       0.0000       0.0000    
          0.0000       0.0000       0.0000    /
  11315 'GENROU' 29    5.6150      0.22000E-01  0.44700      0.47000E-01
          6.5900       0.0000       1.9010       1.8120      0.27100    
         0.42700      0.17500      0.16000      0.11000      0.45000    /
  11315 'PSS2A '  29         1            0            3            0
               5            1       2.0000       2.0000       0.0000    
          2.0000       0.0000       2.0000      0.15200       1.0000    
         0.50000      0.10000       15.000      0.15000      0.20000E-01
         0.15000      0.30000E-01  0.10000     -0.10000     /
  11315 'ESST4B' 29    0.0000       3.1300       3.1300       1.0000    
        -0.87000      0.10000E-01   1.0000       0.0000       1.0000    
        -0.87000       0.0000       6.3800       0.0000       7.9800    
         0.16000       0.0000       0.0000    /
  11315 'IEEEG1' 29         0           0        25.000      0.50000E-01
          0.0000      0.40000      0.50000E-01 -0.10000      0.64519    
         0.19231      0.20000       1.0000       0.0000       0.0000    
          0.0000       0.0000       0.0000       0.0000       0.0000    
          0.0000       0.0000       0.0000    /
  11316 'GENROU' 30    5.6150      0.22000E-01  0.44700      0.47000E-01
          6.5900       0.0000       1.9010       1.8120      0.27100    
         0.42700      0.17500      0.16000      0.11000      0.45000    /
  11316 'PSS2A '  30         1            0            3            0
               5            1       2.0000       2.0000       0.0000    
          2.0000       0.0000       2.0000      0.15200       1.0000    
         0.50000      0.10000       15.000      0.15000      0.20000E-01
         0.15000      0.30000E-01  0.10000     -0.10000     /
  11316 'ESST4B' 30    0.0000       3.1300       3.1300       1.0000    
        -0.87000      0.10000E-01   1.0000       0.0000       1.0000    
        -0.87000       0.0000       6.3800       0.0000       7.9800    
         0.16000       0.0000       0.0000    /
  11316 'IEEEG1' 30         0           0        25.000      0.50000E-01
          0.0000      0.40000      0.50000E-01 -0.10000      0.64519    
         0.19231      0.20000       1.0000       0.0000       0.0000    
          0.0000       0.0000       0.0000       0.0000       0.0000    
          0.0000       0.0000       0.0000    /
  11316 'GENROU' 31    5.6150      0.22000E-01  0.44700      0.47000E-01
          6.5900       0.0000       1.9010       1.8120      0.27100    
         0.42700      0.17500      0.16000      0.11000      0.45000    /
  11316 'PSS2A '  31         1            0            3            0
               5            1       2.0000       2.0000       0.0000    
          2.0000       0.0000       2.0000      0.15200       1.0000    
         0.50000      0.10000       15.000      0.15000      0.20000E-01
         0.15000      0.30000E-01  0.10000     -0.10000     /
  11316 'ESST4B' 31    0.0000       3.1300       3.1300       1.0000    
        -0.87000      0.10000E-01   1.0000       0.0000       1.0000    
        -0.87000       0.0000       6.3800       0.0000       7.9800    
         0.16000       0.0000       0.0000    /
  11316 'IEEEG1' 31         0           0        25.000      0.50000E-01
          0.0000      0.40000      0.50000E-01 -0.10000      0.64519    
         0.19231      0.20000       1.0000       0.0000       0.0000    
          0.0000       0.0000       0.0000       0.0000       0.0000    
          0.0000       0.0000       0.0000    /
  11316 'GENROU' 32    5.6150      0.22000E-01  0.44700      0.47000E-01
          6.5900       0.0000       1.9010       1.8120      0.27100    
         0.42700      0.17500      0.16000      0.11000      0.45000    /
  11316 'PSS2A '  32         1            0            3            0
               5            1       2.0000       2.0000       0.0000    
          2.0000       0.0000       2.0000      0.15200       1.0000    
         0.50000      0.10000       15.000      0.15000      0.20000E-01
         0.15000      0.30000E-01  0.10000     -0.10000     /
  11316 'ESST4B' 32    0.0000       3.1300       3.1300       1.0000    
        -0.87000      0.10000E-01   1.0000       0.0000       1.0000    
        -0.87000       0.0000       6.3800       0.0000       7.9800    
         0.16000       0.0000       0.0000    /
  11316 'IEEEG1' 32         0           0        25.000      0.50000E-01
          0.0000      0.40000      0.50000E-01 -0.10000      0.64519    
         0.19231      0.20000       1.0000       0.0000       0.0000    
          0.0000       0.0000       0.0000       0.0000       0.0000    
          0.0000       0.0000       0.0000    /
  11316 'GENROU' 33    5.6150      0.22000E-01  0.44700      0.47000E-01
          6.5900       0.0000       1.9010       1.8120      0.27100    
         0.42700      0.17500      0.16000      0.11000      0.45000    /
  11316 'PSS2A '  33         1            0            3            0
               5            1       2.0000       2.0000       0.0000    
          2.0000       0.0000       2.0000      0.15200       1.0000    
         0.50000      0.10000       15.000      0.15000      0.20000E-01
         0.15000      0.30000E-01  0.10000     -0.10000     /
  11316 'ESST4B' 33    0.0000       3.1300       3.1300       1.0000    
        -0.87000      0.10000E-01   1.0000       0.0000       1.0000    
        -0.87000       0.0000       6.3800       0.0000       7.9800    
         0.16000       0.0000       0.0000    /